REMARK  Name = 
REMARK  7 active torsions:
REMARK  status: ('A' for Active; 'I' for Inactive)
REMARK    1  A    between atoms: C_7  and  C_21
REMARK    2  A    between atoms: C_7  and  C_34
REMARK    3  A    between atoms: C_10  and  N_28
REMARK    4  A    between atoms: C_11  and  N_28
REMARK    5  A    between atoms: C_16  and  C_21
REMARK    6  A    between atoms: C_19  and  C_27
REMARK    7  A    between atoms: C_21  and  C_30
REMARK                            x       y       z     vdW  Elec       q    Type
REMARK                         _______ _______ _______ _____ _____    ______ ____
ROOT
ATOM      1  C   UNL     1       8.678 -32.982 -32.811  0.00  0.00    +0.000 C 
ENDROOT
BRANCH   1  13
ATOM      2  C   UNL     1       7.507 -31.574 -31.117  0.00  0.00    +0.000 C 
ATOM      3  C   UNL     1       4.956 -34.454 -35.430  0.00  0.00    +0.000 C 
ATOM      4  N   UNL     1       3.909 -31.831 -31.886  0.00  0.00    +0.000 NA
ATOM      5  C   UNL     1       6.152 -34.315 -34.556  0.00  0.00    +0.000 C 
ATOM      6  C   UNL     1       6.197 -32.417 -32.642  0.00  0.00    +0.000 C 
ATOM      7  N   UNL     1       3.736 -33.973 -34.902  0.00  0.00    +0.000 NA
ATOM      8  O   UNL     1       6.147 -31.373 -30.807  0.00  0.00    +0.000 OA
ATOM      9  C   UNL     1       3.204 -32.437 -32.983  0.00  0.00    +0.000 C 
ATOM     10  C   UNL     1       5.324 -31.870 -31.713  0.00  0.00    +0.000 C 
ATOM     11  C   UNL     1       5.533 -33.236 -33.679  0.00  0.00    +0.000 C 
ATOM     12  C   UNL     1       4.091 -33.218 -33.891  0.00  0.00    +0.000 C 
ATOM     13  C   UNL     1       7.460 -32.369 -32.131  0.00  0.00    +0.000 C 
BRANCH   9  18
ATOM     14  C   UNL     1      -0.458 -31.386 -32.674  0.00  0.00    +0.000 C 
ATOM     15  O   UNL     1       1.077 -32.724 -34.231  0.00  0.00    +0.000 OA
ATOM     16  C   UNL     1       1.405 -30.465 -31.250  0.00  0.00    +0.000 C 
ATOM     17  N   UNL     1       0.857 -31.428 -32.239  0.00  0.00    +0.000 N 
ATOM     18  C   UNL     1       1.618 -32.293 -33.199  0.00  0.00    +0.000 C 
ENDBRANCH   9  18
ENDBRANCH   1  13
BRANCH   1  19
ATOM     19  C   UNL     1       9.744 -33.745 -32.383  0.00  0.00    +0.000 C 
BRANCH  19  22
ATOM     20  C   UNL     1      11.397 -34.993 -34.183  0.00  0.00    +0.000 C 
ATOM     21  C   UNL     1       9.140 -35.457 -34.213  0.00  0.00    +0.000 C 
ATOM     22  C   UNL     1      10.325 -34.778 -33.316  0.00  0.00    +0.000 C 
ATOM     23  O   UNL     1      11.060 -35.601 -35.322  0.00  0.00    +0.000 OA
ATOM     24  C   UNL     1       9.700 -35.307 -35.540  0.00  0.00    +0.000 C 
BRANCH  20  25
ATOM     25  N   UNL     1      12.629 -34.544 -33.955  0.00  0.00    +0.000 NA
BRANCH  25  28
ATOM     26  C   UNL     1      14.954 -37.443 -33.539  0.00  0.00    +0.000 C 
ATOM     27  C   UNL     1      16.186 -35.302 -32.734  0.00  0.00    +0.000 C 
ATOM     28  C   UNL     1      13.952 -35.150 -33.999  0.00  0.00    +0.000 C 
ATOM     29  C   UNL     1      16.268 -36.724 -33.257  0.00  0.00    +0.000 C 
ATOM     30  C   UNL     1      13.955 -36.606 -34.275  0.00  0.00    +0.000 C 
ATOM     31  C   UNL     1      14.698 -34.875 -32.681  0.00  0.00    +0.000 C 
ATOM     32  O   UNL     1      14.214 -34.436 -31.678  0.00  0.00    +0.000 OA
ENDBRANCH  25  28
ENDBRANCH  20  25
ENDBRANCH  19  22
BRANCH  19  34
ATOM     33  C   UNL     1      10.418 -34.114 -30.085  0.00  0.00    +0.000 C 
ATOM     34  C   UNL     1      10.313 -33.268 -31.246  0.00  0.00    +0.000 C 
ENDBRANCH  19  34
ENDBRANCH   1  19
TORSDOF 7
