USER    Run = 1
USER
USER    Estimated Free Energy of Binding    = +58.67 kcal/mol  [=(1)+(2)+(3)-(4)]
USER
USER    (1) Final Intermolecular Energy     = +58.67 kcal/mol
USER        vdW + Hbond + desolv Energy     = +58.67 kcal/mol
USER        Electrostatic Energy            =  +0.00 kcal/mol
USER        Moving Ligand-Fixed Receptor    = +58.67 kcal/mol
USER        Moving Ligand-Moving Receptor   =  +0.00 kcal/mol
USER    (2) Final Total Internal Energy     =  +0.00 kcal/mol
USER    (3) Torsional Free Energy           =  +0.00 kcal/mol
USER    (4) Unbound System's Energy         =  +0.00 kcal/mol
USER
USER
REMARK  Name = 
REMARK  0 active torsions:
REMARK  status: ('A' for Active; 'I' for Inactive)
REMARK                            x       y       z     vdW  Elec       q    Type
REMARK                         _______ _______ _______ _____ _____    ______ ____
USER                              x       y       z     vdW  Elec       q    Type
USER                           _______ _______ _______ _____ _____    ______ ____
ROOT
ATOM      1  C   UNL     1      26.530 -32.660 -27.714 +0.55 +0.00    +0.000 A  
ATOM      2  C   UNL     1      24.150 -29.431 -30.769 -0.53 -0.00    +0.000 A  
ATOM      3 CL   UNL     1      20.416 -32.877 -32.966 -1.00 -0.00    +0.000 Cl 
ATOM      4  C   UNL     1      25.144 -27.385 -30.126 +2.06 -0.00    +0.000 C  
ATOM      5  C   UNL     1      23.558 -30.568 -31.353 -0.64 -0.00    +0.000 A  
ATOM      6  C   UNL     1      21.878 -32.310 -32.383 -0.38 -0.00    +0.000 A  
ATOM      7  N   UNL     1      23.454 -28.169 -31.155 +2.69 +0.00    +0.000 NA 
ATOM      8  C   UNL     1      25.065 -33.556 -29.487+16.67 -0.00    +0.000 A  
ATOM      9  C   UNL     1      25.541 -28.563 -29.460 +4.40 -0.00    +0.000 C  
ATOM     10  N   UNL     1      22.677 -30.303 -32.457 +2.15 -0.00    +0.000 NA 
ATOM     11  C   UNL     1      26.160 -31.343 -28.150 +2.57 -0.00    +0.000 A  
ATOM     12  C   UNL     1      22.832 -32.730 -31.453 +8.50 -0.00    +0.000 A  
ATOM     13  C   UNL     1      24.025 -27.161 -30.787 +1.25 +0.00    +0.000 C  
ATOM     14  N   UNL     1      22.058 -31.077 -32.894 -0.50 -0.00    +0.000 NA 
ATOM     15  C   UNL     1      23.701 -31.821 -30.794 +0.03 -0.00    +0.000 A  
ATOM     16  C   UNL     1      26.118 -33.794 -28.396 +2.06 -0.00    +0.000 A  
ATOM     17  C   UNL     1      24.700 -32.240 -29.819+13.64 -0.00    +0.000 A  
ATOM     18  C   UNL     1      25.362 -31.122 -29.225 +5.43 -0.00    +0.000 A  
ATOM     19  C   UNL     1      24.999 -29.696 -29.806 -0.29 -0.00    +0.000 A  
ENDROOT
TORSDOF 0
TER