REMARK  Name = 
REMARK  8 active torsions:
REMARK  status: ('A' for Active; 'I' for Inactive)
REMARK    1  A    between atoms: N_2  and  C_14
REMARK    2  A    between atoms: N_8  and  C_11
REMARK    3  A    between atoms: N_8  and  C_31
REMARK    4  A    between atoms: C_13  and  C_31
REMARK    5  A    between atoms: C_14  and  C_23
REMARK    6  A    between atoms: N_20  and  C_23
REMARK    7  A    between atoms: C_23  and  C_26
REMARK    8  A    between atoms: C_28  and  C_31
REMARK                            x       y       z     vdW  Elec       q    Type
REMARK                         _______ _______ _______ _____ _____    ______ ____
ROOT
ATOM      1  C   UNL     1       7.116 -34.457 -33.855  0.00  0.00    +0.000 C 
ATOM      2  C   UNL     1       5.557 -32.976 -33.533  0.00  0.00    +0.000 C 
ATOM      3  C   UNL     1       4.254 -31.678 -31.802  0.00  0.00    +0.000 C 
ATOM      4  C   UNL     1       6.685 -32.006 -33.132  0.00  0.00    +0.000 C 
ATOM      5  N   UNL     1       4.255 -32.444 -33.209  0.00  0.00    +0.000 N 
ATOM      6  N   UNL     1       5.909 -34.126 -33.878  0.00  0.00    +0.000 NA
ATOM      7  C   UNL     1       7.711 -33.023 -33.490  0.00  0.00    +0.000 C 
ATOM      8  C   UNL     1       8.078 -33.920 -32.941  0.00  0.00    +0.000 C 
ENDROOT
BRANCH   5   9
ATOM      9  C   UNL     1       3.071 -32.647 -33.977  0.00  0.00    +0.000 C 
BRANCH   9  10
ATOM     10  C   UNL     1       1.762 -32.496 -33.171  0.00  0.00    +0.000 C 
ATOM     11  C   UNL     1       1.384 -30.999 -33.028  0.00  0.00    +0.000 C 
ATOM     12  O   UNL     1       1.912 -31.851 -31.957  0.00  0.00    +0.000 OA
ENDBRANCH   9  10
BRANCH   9  13
ATOM     13  C   UNL     1       3.145 -33.197 -35.183  0.00  0.00    +0.000 C 
BRANCH  13  14
ATOM     14  N   UNL     1       2.312 -34.124 -35.636  0.00  0.00    +0.000 NA
ATOM     15  C   UNL     1       1.867 -34.413 -36.845  0.00  0.00    +0.000 C 
ATOM     16  O   UNL     1       2.579 -34.849 -37.648  0.00  0.00    +0.000 OA
ATOM     17  O   UNL     1       0.585 -34.268 -37.042  0.00  0.00    +0.000 OA
ENDBRANCH  13  14
ENDBRANCH   9  13
ENDBRANCH   5   9
BRANCH   8  18
ATOM     18  C   UNL     1       9.405 -34.087 -32.164  0.00  0.00    +0.000 C 
BRANCH  18  21
ATOM     19  C   UNL     1      12.290 -35.220 -34.435  0.00  0.00    +0.000 A 
ATOM     20  C   UNL     1      10.719 -36.935 -34.335  0.00  0.00    +0.000 A 
ATOM     21  C   UNL     1      10.341 -34.770 -33.187  0.00  0.00    +0.000 A 
ATOM     22  C   UNL     1      11.901 -36.513 -34.742  0.00  0.00    +0.000 A 
ATOM     23  C   UNL     1      11.553 -34.370 -33.591  0.00  0.00    +0.000 A 
ATOM     24  C   UNL     1       9.870 -36.057 -33.729  0.00  0.00    +0.000 A 
ENDBRANCH  18  21
BRANCH  18  25
ATOM     25  N   UNL     1      10.250 -33.061 -31.592  0.00  0.00    +0.000 NA
BRANCH  25  28
ATOM     26  C   UNL     1      10.777 -32.761 -29.196  0.00  0.00    +0.000 C 
ATOM     27  N   UNL     1      13.065 -33.026 -29.410  0.00  0.00    +0.000 NA
ATOM     28  C   UNL     1      11.088 -33.184 -30.542  0.00  0.00    +0.000 C 
ATOM     29  C   UNL     1      12.375 -33.345 -30.602  0.00  0.00    +0.000 C 
ATOM     30  N   UNL     1      12.196 -31.813 -27.580  0.00  0.00    +0.000 NA
ATOM     31  C   UNL     1      12.073 -32.483 -28.630  0.00  0.00    +0.000 C 
ENDBRANCH  25  28
ENDBRANCH  18  25
ENDBRANCH   8  18
TORSDOF 8
