REMARK  Name = 
REMARK  1 active torsions:
REMARK  status: ('A' for Active; 'I' for Inactive)
REMARK    1  A    between atoms: C_5  and  C_14
REMARK                            x       y       z     vdW  Elec       q    Type
REMARK                         _______ _______ _______ _____ _____    ______ ____
ROOT
ATOM      1  C   UNL     1       9.284 -35.330 -34.771  0.00  0.00    +0.000 C 
ATOM      2  C   UNL     1       7.988 -32.067 -31.424  0.00  0.00    +0.000 C 
ATOM      3  C   UNL     1       9.909 -33.981 -32.421  0.00  0.00    +0.000 C 
ATOM      4  C   UNL     1       8.246 -34.660 -34.085  0.00  0.00    +0.000 C 
ATOM      5  N   UNL     1      10.462 -33.525 -31.270  0.00  0.00    +0.000 NA
ATOM      6  C   UNL     1       8.829 -31.935 -30.408  0.00  0.00    +0.000 C 
ATOM      7  C   UNL     1       7.846 -32.788 -32.618  0.00  0.00    +0.000 C 
ATOM      8  C   UNL     1      10.567 -35.255 -34.306  0.00  0.00    +0.000 C 
ATOM      9  N   UNL     1      10.881 -34.672 -33.149  0.00  0.00    +0.000 NA
ATOM     10  C   UNL     1      10.002 -32.708 -30.377  0.00  0.00    +0.000 C 
ATOM     11  C   UNL     1       8.650 -33.754 -33.083  0.00  0.00    +0.000 C 
ENDROOT
BRANCH   4  15
ATOM     12  N   UNL     1       6.629 -35.945 -35.332  0.00  0.00    +0.000 NA
ATOM     13  C   UNL     1       5.288 -36.183 -35.919  0.00  0.00    +0.000 C 
ATOM     14  O   UNL     1       5.976 -34.090 -34.234  0.00  0.00    +0.000 OA
ATOM     15  C   UNL     1       6.885 -34.834 -34.589  0.00  0.00    +0.000 C 
ENDBRANCH   4  15
TORSDOF 1
