REMARK  Name = 
REMARK  8 active torsions:
REMARK  status: ('A' for Active; 'I' for Inactive)
REMARK    1  A    between atoms: C_1  and  C_13
REMARK    2  A    between atoms: C_2  and  C_11
REMARK    3  A    between atoms: C_2  and  C_14
REMARK    4  A    between atoms: C_4  and  C_7
REMARK    5  A    between atoms: C_4  and  C_14
REMARK    6  A    between atoms: C_5  and  C_11
REMARK    7  A    between atoms: C_5  and  C_13
REMARK    8  A    between atoms: C_7  and  N_9
REMARK                            x       y       z     vdW  Elec       q    Type
REMARK                         _______ _______ _______ _____ _____    ______ ____
ROOT
ATOM      1  C   UNL     1      10.972 -34.356 -33.939  0.00  0.00    +0.000 C 
ATOM      2  S   UNL     1       9.475 -34.240 -34.388  0.00  0.00    +0.000 S 
ATOM      3  C   UNL     1      10.426 -35.186 -33.564  0.00  0.00    +0.000 C 
ENDROOT
BRANCH   1   4
ATOM      4  C   UNL     1      11.523 -34.801 -33.807  0.00  0.00    +0.000 C 
BRANCH   4   5
ATOM      5  C   UNL     1      10.744 -36.027 -34.590  0.00  0.00    +0.000 C 
BRANCH   5   6
ATOM      6  C   UNL     1       9.267 -36.467 -34.363  0.00  0.00    +0.000 C 
BRANCH   6   7
ATOM      7  C   UNL     1       8.374 -35.314 -33.811  0.00  0.00    +0.000 C 
ATOM      8  C   UNL     1       8.534 -34.390 -33.510  0.00  0.00    +0.000 C 
ATOM      9  C   UNL     1       7.574 -35.066 -33.759  0.00  0.00    +0.000 C 
ENDBRANCH   6   7
ENDBRANCH   5   6
ENDBRANCH   4   5
ENDBRANCH   1   4
BRANCH   1  10
ATOM     10  C   UNL     1      10.759 -34.280 -32.744  0.00  0.00    +0.000 C 
BRANCH  10  11
ATOM     11  C   UNL     1      10.542 -33.411 -32.329  0.00  0.00    +0.000 C 
BRANCH  11  12
ATOM     12  C   UNL     1      10.218 -32.676 -32.528  0.00  0.00    +0.000 C 
BRANCH  12  14
ATOM     13  C   UNL     1       8.351 -33.313 -32.812  0.00  0.00    +0.000 C 
ATOM     14  N   UNL     1       8.922 -32.687 -32.280  0.00  0.00    +0.000 NA
ENDBRANCH  12  14
ENDBRANCH  11  12
ENDBRANCH  10  11
ENDBRANCH   1  10
TORSDOF 8
