REMARK  Name = 
REMARK  3 active torsions:
REMARK  status: ('A' for Active; 'I' for Inactive)
REMARK    1  A    between atoms: C_3  and  C_11
REMARK    2  A    between atoms: C_3  and  C_13
REMARK    3  A    between atoms: C_11  and  C_14
REMARK                            x       y       z     vdW  Elec       q    Type
REMARK                         _______ _______ _______ _____ _____    ______ ____
ROOT
ATOM      1  C   UNL     1       6.537 -34.983 -35.662  0.00  0.00    +0.000 C 
ATOM      2  O   UNL     1      10.753 -33.870 -31.287  0.00  0.00    +0.000 OA
ATOM      3  C   UNL     1      10.486 -32.249 -29.591  0.00  0.00    +0.000 A 
ATOM      4  C   UNL     1       5.298 -34.238 -34.930  0.00  0.00    +0.000 C 
ATOM      5  O   UNL     1       8.598 -30.838 -29.685  0.00  0.00    +0.000 OA
ATOM      6  C   UNL     1       9.243 -36.052 -35.529  0.00  0.00    +0.000 C 
ATOM      7  C   UNL     1      12.820 -33.047 -28.500  0.00  0.00    +0.000 A 
ATOM      8  C   UNL     1       8.797 -32.486 -31.376  0.00  0.00    +0.000 A 
ATOM      9  C   UNL     1      10.790 -34.325 -34.011  0.00  0.00    +0.000 C 
ATOM     10  C   UNL     1      11.230 -33.269 -30.137  0.00  0.00    +0.000 A 
ATOM     11  C   UNL     1       5.603 -33.432 -33.726  0.00  0.00    +0.000 C 
ATOM     12  C   UNL     1       9.704 -33.445 -31.884  0.00  0.00    +0.000 A 
ATOM     13  C   UNL     1      10.428 -35.552 -34.845  0.00  0.00    +0.000 C 
ATOM     14  C   UNL     1      10.955 -31.599 -28.318  0.00  0.00    +0.000 A 
ATOM     15  C   UNL     1       9.198 -31.778 -30.240  0.00  0.00    +0.000 A 
ATOM     16  C   UNL     1      12.443 -33.679 -29.664  0.00  0.00    +0.000 A 
ATOM     17  C   UNL     1       9.518 -33.909 -33.303  0.00  0.00    +0.000 C 
ATOM     18  O   UNL     1       6.612 -31.616 -31.323  0.00  0.00    +0.000 OA
ATOM     19  C   UNL     1       7.059 -36.196 -35.122  0.00  0.00    +0.000 C 
ATOM     20  C   UNL     1      12.123 -32.144 -27.704  0.00  0.00    +0.000 A 
ATOM     21  C   UNL     1       7.916 -34.943 -35.063  0.00  0.00    +0.000 C 
ATOM     22  C   UNL     1       6.983 -33.350 -33.024  0.00  0.00    +0.000 C 
ATOM     23  C   UNL     1       7.511 -32.255 -32.185  0.00  0.00    +0.000 C 
ATOM     24  C   UNL     1       8.013 -34.284 -33.557  0.00  0.00    +0.000 C 
ENDROOT
BRANCH  11  25
ATOM     25  C   UNL     1       4.753 -32.607 -33.287  0.00  0.00    +0.000 C 
BRANCH  25  26
ATOM     26  C   UNL     1       3.503 -32.131 -33.119  0.00  0.00    +0.000 C 
BRANCH  26  27
ATOM     27  C   UNL     1       2.291 -32.524 -32.480  0.00  0.00    +0.000 C 
ATOM     28  O   UNL     1       1.331 -32.581 -33.206  0.00  0.00    +0.000 OA
ATOM     29  O   UNL     1       2.390 -32.823 -31.189  0.00  0.00    +0.000 OA
ENDBRANCH  26  27
ENDBRANCH  25  26
ENDBRANCH  11  25
TORSDOF 3
