=
     RDKit          3D

 13 14  0  0  0  0  0  0  0  0999 V2000
   20.3510  -32.4570  -34.2920 C   0  0  0  0  0  0  0  0  0  0  0  0
   19.4690  -33.5710  -32.2530 C   0  0  0  0  0  0  0  0  0  0  0  0
   20.8810  -31.6240  -32.0580 C   0  0  0  0  0  0  0  0  0  0  0  0
   18.6210  -34.1310  -34.4730 C   0  0  0  0  0  0  0  0  0  0  0  0
   21.0330  -31.5500  -33.4270 C   0  0  0  0  0  0  0  0  0  0  0  0
   18.0450  -35.4960  -32.5310 C   0  0  0  0  0  0  0  0  0  0  0  0
   19.5240  -33.3860  -33.6870 C   0  0  0  0  0  0  0  0  0  0  0  0
   17.9560  -35.1570  -33.9620 C   0  0  0  0  0  0  0  0  0  0  0  0
   18.8380  -34.7460  -31.7710 C   0  0  0  0  0  0  0  0  0  0  0  0
   20.0790  -32.6270  -31.4530 C   0  0  0  0  0  0  0  0  0  0  0  0
   20.8240  -33.0810  -29.2960 O   0  0  0  0  0  0  0  0  0  0  0  0
   19.9880  -32.5190  -30.0240 N   0  0  0  0  0  0  0  0  0  0  0  0
   19.0750  -31.9460  -29.4410 O   0  0  0  0  0  0  0  0  0  0  0  0
  1  7  2  0
  1  5  1  0
  2  7  1  0
  2  9  1  0
  2 10  2  0
  3  5  2  0
  3 10  1  0
  4  8  2  0
  4  7  1  0
  6  8  1  0
  6  9  2  0
 10 12  1  0
 11 12  1  0
 12 13  2  0
M  CHG  2  11  -1  12   1
M  END
$$$$
