REMARK  Name = 
REMARK  8 active torsions:
REMARK  status: ('A' for Active; 'I' for Inactive)
REMARK    1  A    between atoms: C_2  and  C_34
REMARK    2  A    between atoms: C_3  and  C_10
REMARK    3  A    between atoms: C_4  and  C_7
REMARK    4  A    between atoms: C_5  and  C_36
REMARK    5  A    between atoms: C_10  and  C_42
REMARK    6  A    between atoms: C_17  and  C_26
REMARK    7  A    between atoms: C_17  and  C_31
REMARK    8  A    between atoms: C_23  and  C_28
REMARK                            x       y       z     vdW  Elec       q    Type
REMARK                         _______ _______ _______ _____ _____    ______ ____
ROOT
ATOM      1  C   UNL     1       5.480 -34.576 -36.243  0.00  0.00    +0.000 C 
ATOM      2  C   UNL     1       8.182 -35.536 -36.167  0.00  0.00    +0.000 C 
ATOM      3  N   UNL     1       4.645 -34.098 -35.205  0.00  0.00    +0.000 NA
ATOM      4  C   UNL     1       5.503 -33.666 -34.047  0.00  0.00    +0.000 C 
ATOM      5  C   UNL     1       6.693 -35.105 -35.419  0.00  0.00    +0.000 C 
ATOM      6  N   UNL     1       6.499 -34.384 -34.044  0.00  0.00    +0.000 NA
ENDROOT
BRANCH   4   7
ATOM      7  C   UNL     1       4.950 -32.776 -33.136  0.00  0.00    +0.000 C 
ATOM      8  C   UNL     1       3.887 -32.349 -32.601  0.00  0.00    +0.000 C 
ATOM      9  O   UNL     1       1.778 -31.973 -31.413  0.00  0.00    +0.000 OA
ATOM     10  C   UNL     1       3.075 -31.170 -31.781  0.00  0.00    +0.000 C 
ATOM     11  N   UNL     1       4.207 -30.857 -31.019  0.00  0.00    +0.000 NA
ATOM     12  C   UNL     1       5.737 -31.287 -31.330  0.00  0.00    +0.000 C 
ATOM     13  C   UNL     1       6.341 -31.937 -32.254  0.00  0.00    +0.000 C 
ATOM     14  O   UNL     1       2.462 -29.933 -31.988  0.00  0.00    +0.000 OA
BRANCH  13  15
ATOM     15  C   UNL     1       7.285 -32.520 -32.631  0.00  0.00    +0.000 C 
ATOM     16  C   UNL     1       8.784 -32.983 -31.930  0.00  0.00    +0.000 C 
BRANCH  16  17
ATOM     17  C   UNL     1       9.827 -33.452 -32.459  0.00  0.00    +0.000 C 
BRANCH  17  23
ATOM     18  C   UNL     1      10.895 -35.571 -33.336  0.00  0.00    +0.000 C 
ATOM     19  O   UNL     1      11.173 -39.163 -33.580  0.00  0.00    +0.000 OA
ATOM     20  C   UNL     1      12.092 -36.304 -33.427  0.00  0.00    +0.000 C 
ATOM     21  C   UNL     1      10.788 -38.198 -34.258  0.00  0.00    +0.000 C 
ATOM     22  C   UNL     1       9.474 -35.983 -33.435  0.00  0.00    +0.000 C 
ATOM     23  C   UNL     1      10.033 -35.005 -32.488  0.00  0.00    +0.000 C 
ATOM     24  C   UNL     1      11.318 -36.759 -34.736  0.00  0.00    +0.000 C 
ATOM     25  C   UNL     1       9.341 -37.395 -33.762  0.00  0.00    +0.000 C 
ENDBRANCH  17  23
ENDBRANCH  16  17
ENDBRANCH  13  15
ENDBRANCH   4   7
BRANCH   1  26
ATOM     26  C   UNL     1       5.181 -34.777 -37.881  0.00  0.00    +0.000 C 
BRANCH  26  32
ATOM     27  C   UNL     1       2.913 -33.400 -40.098  0.00  0.00    +0.000 C 
ATOM     28  O   UNL     1       3.360 -33.872 -38.876  0.00  0.00    +0.000 OA
ATOM     29  C   UNL     1       3.999 -32.710 -40.863  0.00  0.00    +0.000 C 
ATOM     30  O   UNL     1       4.103 -32.495 -41.842  0.00  0.00    +0.000 OA
ATOM     31  C   UNL     1       5.173 -33.222 -39.821  0.00  0.00    +0.000 C 
ATOM     32  C   UNL     1       4.744 -33.512 -38.451  0.00  0.00    +0.000 C 
BRANCH  27  39
ATOM     33  C   UNL     1      -1.548 -34.964 -40.899  0.00  0.00    +0.000 C 
ATOM     34  C   UNL     1       0.522 -34.252 -39.423  0.00  0.00    +0.000 C 
ATOM     35  C   UNL     1      -0.717 -34.606 -39.923  0.00  0.00    +0.000 C 
ATOM     36  C   UNL     1       0.304 -34.840 -42.431  0.00  0.00    +0.000 C 
ATOM     37  C   UNL     1      -1.068 -35.207 -42.070  0.00  0.00    +0.000 C 
ATOM     38  C   UNL     1       1.190 -34.443 -41.662  0.00  0.00    +0.000 C 
ATOM     39  C   UNL     1       1.494 -33.763 -40.389  0.00  0.00    +0.000 C 
BRANCH  33  40
ATOM     40  C   UNL     1      -3.039 -35.085 -40.639  0.00  0.00    +0.000 C 
ATOM     41  C   UNL     1      -3.533 -33.960 -39.670  0.00  0.00    +0.000 C 
ATOM     42  C   UNL     1      -4.173 -35.302 -41.680  0.00  0.00    +0.000 C 
ENDBRANCH  33  40
ENDBRANCH  27  39
ENDBRANCH  26  32
ENDBRANCH   1  26
TORSDOF 8
