USER    Run = 1
USER
USER    Estimated Free Energy of Binding    = +51.92 kcal/mol  [=(1)+(2)+(3)-(4)]
USER
USER    (1) Final Intermolecular Energy     = +51.92 kcal/mol
USER        vdW + Hbond + desolv Energy     = +51.92 kcal/mol
USER        Electrostatic Energy            =  +0.00 kcal/mol
USER        Moving Ligand-Fixed Receptor    = +51.92 kcal/mol
USER        Moving Ligand-Moving Receptor   =  +0.00 kcal/mol
USER    (2) Final Total Internal Energy     =  +0.00 kcal/mol
USER    (3) Torsional Free Energy           =  +0.00 kcal/mol
USER    (4) Unbound System's Energy         =  +0.00 kcal/mol
USER
USER
REMARK  Name = 
REMARK  0 active torsions:
REMARK  status: ('A' for Active; 'I' for Inactive)
REMARK                            x       y       z     vdW  Elec       q    Type
REMARK                         _______ _______ _______ _____ _____    ______ ____
USER                              x       y       z     vdW  Elec       q    Type
USER                           _______ _______ _______ _____ _____    ______ ____
ROOT
ATOM      1  C   UNL     1      19.424 -32.883 -33.879 -0.70 -0.00    +0.000 C  
ATOM      2  C   UNL     1      20.555 -32.791 -32.895 -0.74 -0.00    +0.000 C  
ATOM      3  C   UNL     1      18.827 -34.306 -33.861 -0.48 -0.00    +0.000 C  
ATOM      4  C   UNL     1      22.739 -31.546 -32.190 -0.59 -0.00    +0.000 C  
ATOM      5  O   UNL     1      25.796 -29.543 -31.386 -1.04 -0.00    +0.000 OA 
ATOM      6  O   UNL     1      22.603 -31.129 -28.383+24.17 +0.00    +0.000 OA 
ATOM      7  C   UNL     1      21.848 -32.157 -33.276 -0.54 -0.00    +0.000 C  
ATOM      8  C   UNL     1      20.145 -31.998 -29.394+13.82 -0.00    +0.000 C  
ATOM      9  C   UNL     1      24.390 -30.474 -33.751 +6.54 -0.00    +0.000 C  
ATOM     10  C   UNL     1      19.370 -34.446 -31.280 -0.55 -0.00    +0.000 C  
ATOM     11  C   UNL     1      20.369 -33.341 -31.543 -0.74 -0.00    +0.000 C  
ATOM     12  O   UNL     1      22.084 -32.078 -34.459 +4.52 -0.00    +0.000 OA 
ATOM     13  C   UNL     1      22.301 -31.862 -30.775 +0.36 -0.00    +0.000 C  
ATOM     14  N   UNL     1      24.176 -30.436 -29.946 -0.61 -0.00    +0.000 NA 
ATOM     15  C   UNL     1      23.906 -30.775 -32.423 -0.13 -0.00    +0.000 C  
ATOM     16  C   UNL     1      24.718 -30.269 -31.241 -0.56 -0.00    +0.000 C  
ATOM     17  C   UNL     1      18.663 -35.055 -32.513 -0.70 -0.00    +0.000 C  
ATOM     18  C   UNL     1      21.214 -32.758 -30.342 +4.46 -0.00    +0.000 C  
ATOM     19  C   UNL     1      23.017 -31.168 -29.706 +5.44 -0.00    +0.000 C  
ENDROOT
TORSDOF 0
TER