REMARK  Name = 
REMARK  0 active torsions:
REMARK  status: ('A' for Active; 'I' for Inactive)
REMARK                            x       y       z     vdW  Elec       q    Type
REMARK                         _______ _______ _______ _____ _____    ______ ____
ROOT
ATOM      1  S   UNL     1       4.683 -33.235 -33.536  0.00  0.00    +0.000 S 
ATOM      2  C   UNL     1      12.022 -34.250 -33.630  0.00  0.00    +0.000 C 
ATOM      3  C   UNL     1       8.439 -33.185 -32.881  0.00  0.00    +0.000 A 
ATOM      4  C   UNL     1       9.821 -33.743 -33.154  0.00  0.00    +0.000 C 
ATOM      5  C   UNL     1       9.934 -34.796 -34.077  0.00  0.00    +0.000 C 
ATOM      6  C   UNL     1       5.939 -34.844 -35.196  0.00  0.00    +0.000 C 
ATOM      7  S   UNL     1      11.203 -33.186 -32.702  0.00  0.00    +0.000 S 
ATOM      8  N   UNL     1       8.112 -32.284 -31.964  0.00  0.00    +0.000 NA
ATOM      9  O   UNL     1       3.647 -34.916 -35.336  0.00  0.00    +0.000 OA
ATOM     10  C   UNL     1       5.821 -31.135 -31.498  0.00  0.00    +0.000 C 
ATOM     11  C   UNL     1       4.735 -34.475 -34.851  0.00  0.00    +0.000 C 
ATOM     12  C   UNL     1       7.227 -34.697 -34.551  0.00  0.00    +0.000 C 
ATOM     13  S   UNL     1       8.684 -35.585 -34.882  0.00  0.00    +0.000 S 
ATOM     14  C   UNL     1       6.777 -32.091 -32.162  0.00  0.00    +0.000 A 
ATOM     15  N   UNL     1       6.260 -32.972 -33.115  0.00  0.00    +0.000 N 
ATOM     16  C   UNL     1       7.322 -33.696 -33.561  0.00  0.00    +0.000 A 
ATOM     17  C   UNL     1      11.267 -35.194 -34.313  0.00  0.00    +0.000 C 
ENDROOT
TORSDOF 0
