REMARK  Name = 
REMARK  0 active torsions:
REMARK  status: ('A' for Active; 'I' for Inactive)
REMARK                            x       y       z     vdW  Elec       q    Type
REMARK                         _______ _______ _______ _____ _____    ______ ____
ROOT
ATOM      1  C   UNL     1       5.221 -31.168 -30.968  0.00  0.00    +0.000 A 
ATOM      2  C   UNL     1       9.403 -33.688 -32.224  0.00  0.00    +0.000 A 
ATOM      3 CL   UNL     1       7.807 -35.661 -37.144  0.00  0.00    +0.000 Cl
ATOM      4  C   UNL     1      10.867 -33.027 -30.490  0.00  0.00    +0.000 C 
ATOM      5  C   UNL     1       8.629 -34.275 -33.244  0.00  0.00    +0.000 A 
ATOM      6  C   UNL     1       7.738 -35.217 -35.532  0.00  0.00    +0.000 A 
ATOM      7  N   UNL     1      10.866 -33.900 -32.430  0.00  0.00    +0.000 NA
ATOM      8  C   UNL     1       5.115 -32.813 -32.805  0.00  0.00    +0.000 A 
ATOM      9  C   UNL     1       9.560 -32.496 -30.505  0.00  0.00    +0.000 C 
ATOM     10  N   UNL     1       9.313 -35.246 -34.053  0.00  0.00    +0.000 NA
ATOM     11  C   UNL     1       6.621 -31.465 -30.857  0.00  0.00    +0.000 A 
ATOM     12  C   UNL     1       6.902 -34.438 -34.728  0.00  0.00    +0.000 A 
ATOM     13  C   UNL     1      11.552 -33.533 -31.496  0.00  0.00    +0.000 C 
ATOM     14  N   UNL     1       8.869 -35.659 -34.950  0.00  0.00    +0.000 NA
ATOM     15  C   UNL     1       7.357 -33.825 -33.531  0.00  0.00    +0.000 A 
ATOM     16  C   UNL     1       4.394 -31.874 -31.829  0.00  0.00    +0.000 A 
ATOM     17  C   UNL     1       6.501 -33.007 -32.681  0.00  0.00    +0.000 A 
ATOM     18  C   UNL     1       7.231 -32.420 -31.603  0.00  0.00    +0.000 A 
ATOM     19  C   UNL     1       8.746 -32.853 -31.457  0.00  0.00    +0.000 A 
ENDROOT
TORSDOF 0
