=
     RDKit          3D

 13 14  0  0  0  0  0  0  0  0999 V2000
   10.9710  -33.1180  -30.8510 C   0  0  0  0  0  0  0  0  0  0  0  0
    8.9600  -33.4260  -32.2770 C   0  0  0  0  0  0  0  0  0  0  0  0
    8.8600  -32.0070  -30.3280 C   0  0  0  0  0  0  0  0  0  0  0  0
   11.1620  -34.1830  -33.0090 C   0  0  0  0  0  0  0  0  0  0  0  0
   10.1710  -32.2910  -30.0070 C   0  0  0  0  0  0  0  0  0  0  0  0
    9.1460  -34.8390  -34.2210 C   0  0  0  0  0  0  0  0  0  0  0  0
   10.3710  -33.5920  -32.0030 C   0  0  0  0  0  0  0  0  0  0  0  0
   10.6060  -34.8180  -34.0310 C   0  0  0  0  0  0  0  0  0  0  0  0
    8.4000  -34.2150  -33.3140 C   0  0  0  0  0  0  0  0  0  0  0  0
    8.2420  -32.5580  -31.4810 C   0  0  0  0  0  0  0  0  0  0  0  0
    6.1740  -31.8060  -30.7230 O   0  0  0  0  0  0  0  0  0  0  0  0
    6.8930  -32.1100  -31.6900 N   0  0  0  0  0  0  0  0  0  0  0  0
    6.3530  -32.0660  -32.7890 O   0  0  0  0  0  0  0  0  0  0  0  0
  1  7  2  0
  1  5  1  0
  2  9  1  0
  2  7  1  0
  2 10  2  0
  3 10  1  0
  3  5  2  0
  4  8  2  0
  4  7  1  0
  6  8  1  0
  6  9  2  0
 10 12  1  0
 11 12  1  0
 12 13  2  0
M  CHG  2  11  -1  12   1
M  END
$$$$
