USER    Run = 1
USER
USER    Estimated Free Energy of Binding    =  -7.56 kcal/mol  [=(1)+(2)+(3)-(4)]
USER
USER    (1) Final Intermolecular Energy     =  -7.86 kcal/mol
USER        vdW + Hbond + desolv Energy     =  -7.86 kcal/mol
USER        Electrostatic Energy            =  +0.00 kcal/mol
USER        Moving Ligand-Fixed Receptor    =  -7.86 kcal/mol
USER        Moving Ligand-Moving Receptor   =  +0.00 kcal/mol
USER    (2) Final Total Internal Energy     =  -0.10 kcal/mol
USER    (3) Torsional Free Energy           =  +0.30 kcal/mol
USER    (4) Unbound System's Energy         =  -0.10 kcal/mol
USER
USER
REMARK  Name = 
REMARK  1 active torsions:
REMARK  status: ('A' for Active; 'I' for Inactive)
REMARK    1  A    between atoms: C_5  and  C_12
REMARK                            x       y       z     vdW  Elec       q    Type
REMARK                         _______ _______ _______ _____ _____    ______ ____
USER                              x       y       z     vdW  Elec       q    Type
USER                           _______ _______ _______ _____ _____    ______ ____
ROOT
ATOM      1  C   UNL     1      18.055 -34.874 -33.749 -0.65 -0.00    +0.000 C  
ATOM      2  C   UNL     1      21.195 -31.511 -33.296 -0.49 -0.00    +0.000 A  
ATOM      3  C   UNL     1      19.065 -34.441 -31.528 -0.67 -0.00    +0.000 C  
ATOM      4  C   UNL     1      20.908 -33.166 -31.527 -0.62 -0.00    +0.000 A  
ATOM      5  C   UNL     1      19.646 -33.159 -33.524 -0.63 -0.00    +0.000 A  
ATOM      6  C   UNL     1      18.699 -33.804 -34.354 -0.68 -0.00    +0.000 C  
ATOM      7  C   UNL     1      18.052 -35.036 -32.383 -0.72 -0.00    +0.000 C  
ATOM      8  C   UNL     1      20.246 -32.000 -34.012 -0.58 -0.00    +0.000 A  
ATOM      9  C   UNL     1      19.826 -33.663 -32.324 -0.60 -0.00    +0.000 A  
ATOM     10  C   UNL     1      21.576 -32.034 -32.044 -0.67 -0.00    +0.000 A  
ENDROOT
BRANCH  10  11
ATOM     11  C   UNL     1      22.747 -31.528 -31.287 -0.67 -0.00    +0.000 C  
ATOM     12  O   UNL     1      23.452 -30.762 -32.388 -0.89 -0.00    +0.000 OA 
ENDBRANCH  10  11
TORSDOF 1
TER