REMARK  Name = 
REMARK  0 active torsions:
REMARK  status: ('A' for Active; 'I' for Inactive)
REMARK                            x       y       z     vdW  Elec       q    Type
REMARK                         _______ _______ _______ _____ _____    ______ ____
ROOT
ATOM      1  C   UNL     1       9.461 -36.335 -34.077  0.00  0.00    +0.000 C 
ATOM      2  C   UNL     1       9.054 -34.946 -33.677  0.00  0.00    +0.000 C 
ATOM      3  C   UNL     1      10.801 -36.290 -34.842  0.00  0.00    +0.000 C 
ATOM      4  C   UNL     1       7.098 -33.353 -33.006  0.00  0.00    +0.000 C 
ATOM      5  O   UNL     1       4.116 -31.320 -32.017  0.00  0.00    +0.000 OA
ATOM      6  O   UNL     1       8.359 -31.209 -30.090  0.00  0.00    +0.000 OA
ATOM      7  C   UNL     1       7.660 -34.467 -33.894  0.00  0.00    +0.000 C 
ATOM      8  C   UNL     1      10.121 -33.310 -30.638  0.00  0.00    +0.000 C 
ATOM      9  C   UNL     1       4.732 -33.496 -33.839  0.00  0.00    +0.000 C 
ATOM     10  C   UNL     1      11.534 -34.249 -33.335  0.00  0.00    +0.000 C 
ATOM     11  C   UNL     1      10.057 -34.058 -33.069  0.00  0.00    +0.000 C 
ATOM     12  O   UNL     1       7.005 -35.062 -34.717  0.00  0.00    +0.000 OA
ATOM     13  C   UNL     1       8.129 -32.680 -32.123  0.00  0.00    +0.000 C 
ATOM     14  N   UNL     1       6.296 -31.287 -31.155  0.00  0.00    +0.000 NA
ATOM     15  C   UNL     1       5.749 -32.915 -32.993  0.00  0.00    +0.000 C 
ATOM     16  C   UNL     1       5.344 -31.763 -32.086  0.00  0.00    +0.000 C 
ATOM     17  C   UNL     1      11.921 -35.325 -34.375  0.00  0.00    +0.000 C 
ATOM     18  C   UNL     1       9.587 -32.895 -32.108  0.00  0.00    +0.000 C 
ATOM     19  C   UNL     1       7.616 -31.727 -31.140  0.00  0.00    +0.000 C 
ENDROOT
TORSDOF 0
