REMARK  Name = 
REMARK  2 active torsions:
REMARK  status: ('A' for Active; 'I' for Inactive)
REMARK    1  A    between atoms: C_3  and  N_5
REMARK    2  A    between atoms: C_7  and  N_9
REMARK                            x       y       z     vdW  Elec       q    Type
REMARK                         _______ _______ _______ _____ _____    ______ ____
ROOT
ATOM      1  C   UNL     1       9.268 -34.486 -32.738  0.00  0.00    +0.000 A 
ATOM      2  C   UNL     1       8.317 -34.319 -33.606  0.00  0.00    +0.000 A 
ATOM      3  C   UNL     1       7.422 -32.396 -32.256  0.00  0.00    +0.000 A 
ATOM      4  C   UNL     1       8.624 -32.450 -31.470  0.00  0.00    +0.000 A 
ATOM      5  C   UNL     1       6.412 -31.285 -31.843  0.00  0.00    +0.000 C 
ATOM      6  C   UNL     1       9.418 -33.463 -31.772  0.00  0.00    +0.000 A 
ATOM      7  C   UNL     1       7.318 -33.354 -33.287  0.00  0.00    +0.000 A 
ENDROOT
BRANCH   2   9
ATOM      8  O   UNL     1       6.780 -35.512 -34.855  0.00  0.00    +0.000 OA
ATOM      9  N   UNL     1       8.222 -35.263 -34.668  0.00  0.00    +0.000 N 
ATOM     10  O   UNL     1       9.019 -35.410 -35.455  0.00  0.00    +0.000 OA
ENDBRANCH   2   9
BRANCH   4  12
ATOM     11  O   UNL     1      10.212 -32.081 -29.771  0.00  0.00    +0.000 OA
ATOM     12  N   UNL     1       8.958 -31.705 -30.396  0.00  0.00    +0.000 NA
ENDBRANCH   4  12
TORSDOF 2
