=
     RDKit          3D

 14 13  0  0  0  0  0  0  0  0999 V2000
   20.9380  -31.7730  -32.3450 C   0  0  1  0  0  0  0  0  0  0  0  0
   20.4240  -32.4780  -31.0440 S   0  0  0  0  0  1  0  0  0  0  0  0
   21.2580  -32.7850  -32.3430 C   0  0  0  0  0  1  0  0  0  0  0  0
   21.0800  -31.8460  -33.0480 C   0  0  0  0  0  2  0  0  0  0  0  0
   20.0240  -33.1090  -33.1490 C   0  0  0  0  0  2  0  0  0  0  0  0
   20.0150  -34.3720  -32.2370 C   0  0  0  0  0  2  0  0  0  0  0  0
   18.6180  -35.0630  -32.1790 C   0  0  0  0  0  0  0  0  0  0  0  0
   18.1150  -35.6700  -32.7690 C   0  0  0  0  0  1  0  0  0  0  0  0
   18.0030  -35.2640  -31.6450 C   0  0  0  0  0  2  0  0  0  0  0  0
   22.1240  -31.8930  -32.1020 C   0  0  0  0  0  3  0  0  0  0  0  0
   22.6090  -31.1850  -31.6150 C   0  0  0  0  0  3  0  0  0  0  0  0
   23.3160  -31.0700  -31.2010 C   0  0  0  0  0  2  0  0  0  0  0  0
   24.7010  -29.6370  -31.1440 C   0  0  0  0  0  2  0  0  0  0  0  0
   23.9230  -29.9920  -31.6630 N   0  0  0  0  0  0  0  0  0  0  0  0
  5  4  1  0
  5  6  1  0
  4  1  1  0
  8  7  1  0
  1  3  1  1
  1 10  1  0
  1  2  1  0
  6  7  1  0
  7  9  2  0
 10 11  2  0
 14 12  1  0
 14 13  2  0
 11 12  1  0
M  RAD  8   3   2   4   3   5   3   6   3   8   2   9   3  10   2  11   2
M  CHG  1   2  -1
M  RAD  2  12   3  13   3
M  END
>  <_TriposChargeType>  (1) 
GASTEIGER

$$$$
