=
     RDKit          3D

 14 13  0  0  0  0  0  0  0  0999 V2000
   10.9720  -34.3560  -33.9390 C   0  0  1  0  0  0  0  0  0  0  0  0
    9.4750  -34.2400  -34.3880 S   0  0  0  0  0  1  0  0  0  0  0  0
   10.4260  -35.1860  -33.5640 C   0  0  0  0  0  1  0  0  0  0  0  0
   11.5230  -34.8010  -33.8070 C   0  0  0  0  0  2  0  0  0  0  0  0
   10.7440  -36.0270  -34.5900 C   0  0  0  0  0  2  0  0  0  0  0  0
    9.2670  -36.4670  -34.3630 C   0  0  0  0  0  2  0  0  0  0  0  0
    8.3740  -35.3140  -33.8110 C   0  0  0  0  0  0  0  0  0  0  0  0
    8.5340  -34.3900  -33.5100 C   0  0  0  0  0  1  0  0  0  0  0  0
    7.5740  -35.0660  -33.7590 C   0  0  0  0  0  2  0  0  0  0  0  0
   10.7590  -34.2800  -32.7440 C   0  0  0  0  0  2  0  0  0  0  0  0
   10.5420  -33.4110  -32.3290 C   0  0  0  0  0  2  0  0  0  0  0  0
   10.2180  -32.6760  -32.5280 C   0  0  0  0  0  2  0  0  0  0  0  0
    8.3510  -33.3130  -32.8120 C   0  0  0  0  0  2  0  0  0  0  0  0
    8.9220  -32.6870  -32.2800 N   0  0  0  0  0  0  0  0  0  0  0  0
  5  6  1  0
  5  4  1  0
  2  1  1  0
  6  7  1  0
  1  4  1  0
  1  3  1  1
  1 10  1  0
  7  9  2  0
  7  8  1  0
 13 14  2  0
 10 11  1  0
 12 11  1  0
 12 14  1  0
M  RAD  8   3   2   4   3   5   3   6   3   8   2   9   3  10   3  11   3
M  CHG  1   2  -1
M  RAD  2  12   3  13   3
M  END
>  <_TriposChargeType>  (1) 
GASTEIGER

$$$$
