REMARK  Name = 
REMARK  1 active torsions:
REMARK  status: ('A' for Active; 'I' for Inactive)
REMARK    1  A    between atoms: C_8  and  S_13
REMARK                            x       y       z     vdW  Elec       q    Type
REMARK                         _______ _______ _______ _____ _____    ______ ____
ROOT
ATOM      1  C   UNL     1       8.253 -33.935 -33.136  0.00  0.00    +0.000 A 
ATOM      2  C   UNL     1       6.952 -33.295 -33.227  0.00  0.00    +0.000 A 
ATOM      3  C   UNL     1       9.431 -33.627 -32.280  0.00  0.00    +0.000 A 
ATOM      4  C   UNL     1       8.373 -35.100 -33.993  0.00  0.00    +0.000 A 
ATOM      5  C   UNL     1       7.355 -35.528 -34.865  0.00  0.00    +0.000 A 
ATOM      6  N   UNL     1       9.499 -35.903 -33.946  0.00  0.00    +0.000 NA
ATOM      7  C   UNL     1       5.938 -33.755 -34.041  0.00  0.00    +0.000 A 
ATOM      8  O   UNL     1       6.802 -32.186 -32.541  0.00  0.00    +0.000 OA
ATOM      9  C   UNL     1       6.197 -34.903 -34.897  0.00  0.00    +0.000 A 
ATOM     10  C   UNL     1      10.517 -35.468 -33.096  0.00  0.00    +0.000 A 
ATOM     11  N   UNL     1      10.462 -34.488 -32.343  0.00  0.00    +0.000 NA
ATOM     12  N   UNL     1       9.449 -32.558 -31.599  0.00  0.00    +0.000 NA
ENDROOT
BRANCH   7  14
ATOM     13  C   UNL     1       3.914 -33.406 -35.351  0.00  0.00    +0.000 C 
ATOM     14  S   UNL     1       4.394 -33.041 -33.725  0.00  0.00    +0.000 S 
ENDBRANCH   7  14
TORSDOF 1
