REMARK  Name = 
REMARK  1 active torsions:
REMARK  status: ('A' for Active; 'I' for Inactive)
REMARK    1  A    between atoms: C_8  and  N_9
REMARK                            x       y       z     vdW  Elec       q    Type
REMARK                         _______ _______ _______ _____ _____    ______ ____
ROOT
ATOM      1  C   UNL     1       8.919 -32.769 -31.584  0.00  0.00    +0.000 A 
ATOM      2  C   UNL     1      10.100 -33.446 -31.280  0.00  0.00    +0.000 A 
ATOM      3  O   UNL     1       8.673 -31.761 -30.777  0.00  0.00    +0.000 OA
ATOM      4  C   UNL     1       8.523 -34.261 -33.463  0.00  0.00    +0.000 A 
ATOM      5  C   UNL     1      10.517 -34.524 -32.050  0.00  0.00    +0.000 A 
ATOM      6  C   UNL     1       9.684 -34.976 -33.128  0.00  0.00    +0.000 A 
ATOM      7  C   UNL     1       8.124 -33.175 -32.674  0.00  0.00    +0.000 A 
ENDROOT
BRANCH   7   9
ATOM      8  O   UNL     1       6.327 -30.830 -31.305  0.00  0.00    +0.000 OA
ATOM      9  N   UNL     1       6.936 -32.505 -32.892  0.00  0.00    +0.000 NA
ATOM     10  C   UNL     1       6.658 -31.573 -32.091  0.00  0.00    +0.000 C 
ENDBRANCH   7   9
TORSDOF 1
