USER    Run = 1
USER
USER    Estimated Free Energy of Binding    =  -8.08 kcal/mol  [=(1)+(2)+(3)-(4)]
USER
USER    (1) Final Intermolecular Energy     = -10.46 kcal/mol
USER        vdW + Hbond + desolv Energy     = -10.46 kcal/mol
USER        Electrostatic Energy            =  +0.00 kcal/mol
USER        Moving Ligand-Fixed Receptor    = -10.46 kcal/mol
USER        Moving Ligand-Moving Receptor   =  +0.00 kcal/mol
USER    (2) Final Total Internal Energy     = +17.80 kcal/mol
USER    (3) Torsional Free Energy           =  +2.39 kcal/mol
USER    (4) Unbound System's Energy         = +17.80 kcal/mol
USER
USER
REMARK  Name = 
REMARK  8 active torsions:
REMARK  status: ('A' for Active; 'I' for Inactive)
REMARK    1  A    between atoms: C_1  and  C_13
REMARK    2  A    between atoms: C_2  and  C_11
REMARK    3  A    between atoms: C_2  and  C_14
REMARK    4  A    between atoms: C_4  and  C_7
REMARK    5  A    between atoms: C_4  and  C_14
REMARK    6  A    between atoms: C_5  and  C_11
REMARK    7  A    between atoms: C_5  and  C_13
REMARK    8  A    between atoms: C_7  and  N_9
REMARK                            x       y       z     vdW  Elec       q    Type
REMARK                         _______ _______ _______ _____ _____    ______ ____
USER                              x       y       z     vdW  Elec       q    Type
USER                           _______ _______ _______ _____ _____    ______ ____
ROOT
ATOM      1  C   UNL     1      20.938 -31.773 -32.345 -0.79 -0.00    +0.000 C  
ATOM      2  S   UNL     1      20.424 -32.478 -31.044 -0.89 -0.00    +0.000 S  
ATOM      3  C   UNL     1      21.258 -32.785 -32.343 -0.67 -0.00    +0.000 C  
ENDROOT
BRANCH   1   4
ATOM      4  C   UNL     1      21.080 -31.846 -33.048 -0.77 -0.00    +0.000 C  
BRANCH   4   5
ATOM      5  C   UNL     1      20.024 -33.109 -33.149 -0.71 -0.00    +0.000 C  
BRANCH   5   6
ATOM      6  C   UNL     1      20.015 -34.372 -32.237 -0.70 -0.00    +0.000 C  
BRANCH   6   7
ATOM      7  C   UNL     1      18.618 -35.063 -32.179 -0.71 -0.00    +0.000 C  
ATOM      8  C   UNL     1      18.115 -35.670 -32.769 -0.72 -0.00    +0.000 C  
ATOM      9  C   UNL     1      18.003 -35.264 -31.645 -0.70 -0.00    +0.000 C  
ENDBRANCH   6   7
ENDBRANCH   5   6
ENDBRANCH   4   5
ENDBRANCH   1   4
BRANCH   1  10
ATOM     10  C   UNL     1      22.124 -31.893 -32.102 -0.69 -0.00    +0.000 C  
BRANCH  10  11
ATOM     11  C   UNL     1      22.609 -31.185 -31.615 -0.72 -0.00    +0.000 C  
BRANCH  11  12
ATOM     12  C   UNL     1      23.316 -31.070 -31.201 -0.72 -0.00    +0.000 C  
BRANCH  12  14
ATOM     13  C   UNL     1      24.701 -29.637 -31.144 -0.80 -0.00    +0.000 C  
ATOM     14  N   UNL     1      23.923 -29.992 -31.663 -0.85 -0.00    +0.000 NA 
ENDBRANCH  12  14
ENDBRANCH  11  12
ENDBRANCH  10  11
ENDBRANCH   1  10
TORSDOF 8
TER