REMARK  Name = 
REMARK  0 active torsions:
REMARK  status: ('A' for Active; 'I' for Inactive)
REMARK                            x       y       z     vdW  Elec       q    Type
REMARK                         _______ _______ _______ _____ _____    ______ ____
ROOT
ATOM      1  O   UNL     1       7.766 -31.659 -31.366  0.00  0.00    +0.000 OA
ATOM      2  N   UNL     1       2.994 -33.055 -34.277  0.00  0.00    +0.000 NA
ATOM      3  F   UNL     1      11.107 -36.660 -33.653  0.00  0.00    +0.000 F 
ATOM      4  C   UNL     1       9.436 -33.648 -32.597  0.00  0.00    +0.000 C 
ATOM      5  C   UNL     1       7.914 -33.471 -32.720  0.00  0.00    +0.000 C 
ATOM      6  C   UNL     1      10.380 -34.652 -32.785  0.00  0.00    +0.000 C 
ATOM      7  C   UNL     1       5.185 -33.800 -34.414  0.00  0.00    +0.000 C 
ATOM      8  C   UNL     1       8.798 -35.075 -34.258  0.00  0.00    +0.000 C 
ATOM      9  C   UNL     1       5.750 -35.288 -36.935  0.00  0.00    +0.000 C 
ATOM     10  C   UNL     1       5.711 -32.109 -32.118  0.00  0.00    +0.000 C 
ATOM     11  C   UNL     1      10.374 -35.474 -33.907  0.00  0.00    +0.000 C 
ATOM     12  C   UNL     1       6.517 -35.287 -35.763  0.00  0.00    +0.000 C 
ATOM     13  C   UNL     1       3.888 -33.796 -34.957  0.00  0.00    +0.000 C 
ATOM     14  C   UNL     1       3.694 -32.544 -33.195  0.00  0.00    +0.000 C 
ATOM     15  C   UNL     1       3.463 -34.389 -36.191  0.00  0.00    +0.000 C 
ATOM     16  C   UNL     1       7.214 -32.387 -32.018  0.00  0.00    +0.000 C 
ATOM     17  C   UNL     1       5.093 -32.886 -33.147  0.00  0.00    +0.000 C 
ATOM     18  C   UNL     1       1.923 -34.383 -36.510  0.00  0.00    +0.000 C 
ATOM     19  C   UNL     1       5.165 -31.316 -31.136  0.00  0.00    +0.000 C 
ATOM     20  O   UNL     1       3.093 -31.639 -32.410  0.00  0.00    +0.000 OA
ATOM     21  F   UNL     1      10.859 -35.415 -35.213  0.00  0.00    +0.000 F 
ATOM     22  C   UNL     1       8.473 -36.074 -33.940  0.00  0.00    +0.000 C 
ATOM     23  C   UNL     1       4.535 -34.951 -37.143  0.00  0.00    +0.000 C 
ATOM     24  C   UNL     1       6.349 -34.527 -34.626  0.00  0.00    +0.000 C 
ATOM     25  C   UNL     1       7.521 -34.514 -33.661  0.00  0.00    +0.000 C 
ENDROOT
TORSDOF 0
