REMARK  Name = 
REMARK  1 active torsions:
REMARK  status: ('A' for Active; 'I' for Inactive)
REMARK    1  A    between atoms: N_2  and  C_13
REMARK                            x       y       z     vdW  Elec       q    Type
REMARK                         _______ _______ _______ _____ _____    ______ ____
ROOT
ATOM      1  C   UNL     1      10.971 -33.118 -30.851  0.00  0.00    +0.000 A 
ATOM      2  C   UNL     1       8.960 -33.426 -32.277  0.00  0.00    +0.000 A 
ATOM      3  C   UNL     1       8.860 -32.007 -30.328  0.00  0.00    +0.000 A 
ATOM      4  C   UNL     1      11.162 -34.183 -33.009  0.00  0.00    +0.000 A 
ATOM      5  C   UNL     1      10.171 -32.291 -30.007  0.00  0.00    +0.000 A 
ATOM      6  C   UNL     1       9.146 -34.839 -34.221  0.00  0.00    +0.000 A 
ATOM      7  C   UNL     1      10.371 -33.592 -32.003  0.00  0.00    +0.000 A 
ATOM      8  C   UNL     1      10.606 -34.818 -34.031  0.00  0.00    +0.000 A 
ATOM      9  C   UNL     1       8.400 -34.215 -33.314  0.00  0.00    +0.000 A 
ATOM     10  C   UNL     1       8.242 -32.558 -31.481  0.00  0.00    +0.000 A 
ENDROOT
BRANCH  10  12
ATOM     11  O   UNL     1       6.174 -31.806 -30.723  0.00  0.00    +0.000 OA
ATOM     12  N   UNL     1       6.893 -32.110 -31.690  0.00  0.00    +0.000 N 
ATOM     13  O   UNL     1       6.353 -32.066 -32.789  0.00  0.00    +0.000 OA
ENDBRANCH  10  12
TORSDOF 1
