USER    Run = 1
USER
USER    Estimated Free Energy of Binding    =  -3.88 kcal/mol  [=(1)+(2)+(3)-(4)]
USER
USER    (1) Final Intermolecular Energy     =  -4.18 kcal/mol
USER        vdW + Hbond + desolv Energy     =  -4.18 kcal/mol
USER        Electrostatic Energy            =  +0.00 kcal/mol
USER        Moving Ligand-Fixed Receptor    =  -4.18 kcal/mol
USER        Moving Ligand-Moving Receptor   =  +0.00 kcal/mol
USER    (2) Final Total Internal Energy     =  -0.12 kcal/mol
USER    (3) Torsional Free Energy           =  +0.30 kcal/mol
USER    (4) Unbound System's Energy         =  -0.12 kcal/mol
USER
USER
REMARK  Name = 
REMARK  1 active torsions:
REMARK  status: ('A' for Active; 'I' for Inactive)
REMARK    1  A    between atoms: C_8  and  S_13
REMARK                            x       y       z     vdW  Elec       q    Type
REMARK                         _______ _______ _______ _____ _____    ______ ____
USER                              x       y       z     vdW  Elec       q    Type
USER                           _______ _______ _______ _____ _____    ______ ____
ROOT
ATOM      1  C   UNL     1      20.118 -33.162 -32.221 -0.61 -0.00    +0.000 A  
ATOM      2  C   UNL     1      21.199 -32.626 -31.412 -0.56 -0.00    +0.000 A  
ATOM      3  C   UNL     1      18.902 -33.928 -31.834 -0.21 -0.00    +0.000 A  
ATOM      4  C   UNL     1      20.244 -32.832 -33.628 -0.68 -0.00    +0.000 A  
ATOM      5  C   UNL     1      21.333 -32.116 -34.161 +0.39 -0.00    +0.000 A  
ATOM      6  N   UNL     1      19.244 -33.157 -34.527 -0.68 -0.00    +0.000 NA 
ATOM      7  C   UNL     1      22.232 -31.875 -31.933 -0.58 -0.00    +0.000 A  
ATOM      8  O   UNL     1      21.193 -32.957 -30.142 +0.06 -0.00    +0.000 OA 
ATOM      9  C   UNL     1      22.279 -31.655 -33.371 -0.19 -0.00    +0.000 A  
ATOM     10  C   UNL     1      18.174 -33.884 -34.003 -0.62 -0.00    +0.000 A  
ATOM     11  N   UNL     1      18.016 -34.185 -32.813 -0.54 -0.00    +0.000 NA 
ATOM     12  N   UNL     1      18.783 -34.360 -30.648 +1.27 -0.00    +0.000 NA 
ENDROOT
BRANCH   7  14
ATOM     13  C   UNL     1      23.914 -30.114 -31.997 -0.57 -0.00    +0.000 C  
ATOM     14  S   UNL     1      23.197 -31.072 -30.742 -0.65 -0.00    +0.000 S  
ENDBRANCH   7  14
TORSDOF 1
TER