REMARK  Name = 
REMARK  0 active torsions:
REMARK  status: ('A' for Active; 'I' for Inactive)
REMARK                            x       y       z     vdW  Elec       q    Type
REMARK                         _______ _______ _______ _____ _____    ______ ____
ROOT
ATOM      1  N   UNL     1      10.853 -34.454 -33.687  0.00  0.00    +0.000 NA
ATOM      2  C   UNL     1       9.473 -33.391 -32.827  0.00  0.00    +0.000 C 
ATOM      3  C   UNL     1       8.883 -33.934 -33.545  0.00  0.00    +0.000 C 
ATOM      4  C   UNL     1       7.283 -32.146 -32.088  0.00  0.00    +0.000 C 
ATOM      5  C   UNL     1      10.682 -33.596 -32.838  0.00  0.00    +0.000 C 
ATOM      6  C   UNL     1       6.696 -32.992 -33.061  0.00  0.00    +0.000 C 
ATOM      7  N   UNL     1       9.795 -34.679 -34.058  0.00  0.00    +0.000 NA
ATOM      8  C   UNL     1       8.604 -32.396 -31.918  0.00  0.00    +0.000 C 
ATOM      9  C   UNL     1       7.402 -33.944 -33.707  0.00  0.00    +0.000 C 
ATOM     10  C   UNL     1       5.089 -32.882 -33.387  0.00  0.00    +0.000 C 
ENDROOT
TORSDOF 0
