REMARK  Name = 
REMARK  9 active torsions:
REMARK  status: ('A' for Active; 'I' for Inactive)
REMARK    1  A    between atoms: C_2  and  C_14
REMARK    2  A    between atoms: C_2  and  O_32
REMARK    3  A    between atoms: C_4  and  C_24
REMARK    4  A    between atoms: O_5  and  C_20
REMARK    5  A    between atoms: O_8  and  C_12
REMARK    6  A    between atoms: C_15  and  O_17
REMARK    7  A    between atoms: C_16  and  O_32
REMARK    8  A    between atoms: O_17  and  C_29
REMARK    9  A    between atoms: O_19  and  C_28
REMARK                            x       y       z     vdW  Elec       q    Type
REMARK                         _______ _______ _______ _____ _____    ______ ____
ROOT
ATOM      1  C   UNL     1       4.707 -33.691 -36.021  0.00  0.00    +0.000 C 
ATOM      2  C   UNL     1       9.150 -33.607 -32.279  0.00  0.00    +0.000 A 
ATOM      3  C   UNL     1       8.382 -32.645 -31.684  0.00  0.00    +0.000 A 
ATOM      4  N   UNL     1       5.481 -33.746 -34.913  0.00  0.00    +0.000 N 
ATOM      5  C   UNL     1       6.599 -34.569 -34.912  0.00  0.00    +0.000 A 
ATOM      6  C   UNL     1       5.081 -34.264 -37.205  0.00  0.00    +0.000 C 
ATOM      7  C   UNL     1       7.370 -34.120 -33.759  0.00  0.00    +0.000 A 
ATOM      8  C   UNL     1       8.618 -34.423 -33.234  0.00  0.00    +0.000 A 
ATOM      9  C   UNL     1       6.603 -33.125 -33.130  0.00  0.00    +0.000 A 
ATOM     10  C   UNL     1       6.747 -35.504 -35.909  0.00  0.00    +0.000 C 
ATOM     11  C   UNL     1       6.077 -35.337 -37.173  0.00  0.00    +0.000 C 
ATOM     12  N   UNL     1       5.479 -32.995 -33.797  0.00  0.00    +0.000 NA
ATOM     13  C   UNL     1       7.105 -32.343 -32.019  0.00  0.00    +0.000 A 
ENDROOT
BRANCH   2  17
ATOM     14  C   UNL     1      13.347 -33.714 -31.376  0.00  0.00    +0.000 A 
ATOM     15  C   UNL     1      12.897 -33.937 -32.633  0.00  0.00    +0.000 A 
ATOM     16  C   UNL     1      11.547 -34.041 -32.972  0.00  0.00    +0.000 A 
ATOM     17  C   UNL     1      10.625 -33.716 -31.995  0.00  0.00    +0.000 A 
ATOM     18  C   UNL     1      11.038 -33.598 -30.739  0.00  0.00    +0.000 A 
ATOM     19  C   UNL     1      12.367 -33.575 -30.411  0.00  0.00    +0.000 A 
BRANCH  16  20
ATOM     20  O   UNL     1      11.310 -34.370 -34.166  0.00  0.00    +0.000 OA
ATOM     21  C   UNL     1      12.297 -35.201 -34.807  0.00  0.00    +0.000 C 
ENDBRANCH  16  20
BRANCH  19  22
ATOM     22  O   UNL     1      12.834 -33.419 -29.134  0.00  0.00    +0.000 OA
BRANCH  22  23
ATOM     23  C   UNL     1      13.097 -33.152 -28.172  0.00  0.00    +0.000 C 
ATOM     24  C   UNL     1      13.157 -32.746 -27.313  0.00  0.00    +0.000 C 
ENDBRANCH  22  23
ENDBRANCH  19  22
ENDBRANCH   2  17
BRANCH   8  25
ATOM     25  O   UNL     1       9.317 -35.423 -33.936  0.00  0.00    +0.000 OA
ATOM     26  C   UNL     1       9.187 -36.806 -33.597  0.00  0.00    +0.000 C 
ENDBRANCH   8  25
BRANCH  13  28
ATOM     27  C   UNL     1       4.943 -31.614 -30.893  0.00  0.00    +0.000 C 
ATOM     28  O   UNL     1       6.306 -31.401 -31.418  0.00  0.00    +0.000 OA
ENDBRANCH  13  28
BRANCH   6  29
ATOM     29  O   UNL     1       4.294 -34.033 -38.268  0.00  0.00    +0.000 OA
BRANCH  29  30
ATOM     30  C   UNL     1       3.109 -34.607 -38.677  0.00  0.00    +0.000 C 
BRANCH  30  32
ATOM     31  C   UNL     1       1.226 -34.224 -40.280  0.00  0.00    +0.000 C 
ATOM     32  C   UNL     1       2.104 -33.808 -39.195  0.00  0.00    +0.000 C 
ENDBRANCH  30  32
ENDBRANCH  29  30
ENDBRANCH   6  29
TORSDOF 9
