USER    Run = 1
USER
USER    Estimated Free Energy of Binding    =  -7.57 kcal/mol  [=(1)+(2)+(3)-(4)]
USER
USER    (1) Final Intermolecular Energy     =  -7.57 kcal/mol
USER        vdW + Hbond + desolv Energy     =  -7.57 kcal/mol
USER        Electrostatic Energy            =  +0.00 kcal/mol
USER        Moving Ligand-Fixed Receptor    =  -7.57 kcal/mol
USER        Moving Ligand-Moving Receptor   =  +0.00 kcal/mol
USER    (2) Final Total Internal Energy     =  +0.00 kcal/mol
USER    (3) Torsional Free Energy           =  +0.00 kcal/mol
USER    (4) Unbound System's Energy         =  +0.00 kcal/mol
USER
USER
REMARK  Name = 
REMARK  0 active torsions:
REMARK  status: ('A' for Active; 'I' for Inactive)
REMARK                            x       y       z     vdW  Elec       q    Type
REMARK                         _______ _______ _______ _____ _____    ______ ____
USER                              x       y       z     vdW  Elec       q    Type
USER                           _______ _______ _______ _____ _____    ______ ____
ROOT
ATOM      1  N   UNL     1      20.174 -31.512 -33.179 -0.81 -0.00    +0.000 NA 
ATOM      2  N   UNL     1      21.154 -35.022 -31.155 -0.60 -0.00    +0.000 NA 
ATOM      3  C   UNL     1      19.455 -32.650 -33.398 -0.58 -0.00    +0.000 A  
ATOM      4  N   UNL     1      17.988 -34.283 -33.862 -0.66 -0.00    +0.000 NA 
ATOM      5  O   UNL     1      18.692 -35.874 -32.374 -0.68 -0.00    +0.000 OA 
ATOM      6  N   UNL     1      21.529 -32.695 -31.532 -1.20 -0.00    +0.000 NA 
ATOM      7  C   UNL     1      19.710 -33.820 -32.606 -0.59 -0.00    +0.000 A  
ATOM      8  C   UNL     1      20.776 -33.877 -31.764 -0.61 -0.00    +0.000 A  
ATOM      9  C   UNL     1      21.147 -31.580 -32.311 -0.69 -0.00    +0.000 A  
ATOM     10  C   UNL     1      18.456 -33.012 -34.159 -0.54 -0.00    +0.000 C  
ATOM     11  C   UNL     1      18.804 -34.765 -32.913 -0.62 -0.00    +0.000 C  
ENDROOT
TORSDOF 0
TER