USER    Run = 1
USER
USER    Estimated Free Energy of Binding    =+258.66 kcal/mol  [=(1)+(2)+(3)-(4)]
USER
USER    (1) Final Intermolecular Energy     =+255.98 kcal/mol
USER        vdW + Hbond + desolv Energy     =+255.98 kcal/mol
USER        Electrostatic Energy            =  +0.00 kcal/mol
USER        Moving Ligand-Fixed Receptor    =+255.98 kcal/mol
USER        Moving Ligand-Moving Receptor   =  +0.00 kcal/mol
USER    (2) Final Total Internal Energy     =  +1.01 kcal/mol
USER    (3) Torsional Free Energy           =  +2.68 kcal/mol
USER    (4) Unbound System's Energy         =  +1.01 kcal/mol
USER
USER
REMARK  Name = 
REMARK  9 active torsions:
REMARK  status: ('A' for Active; 'I' for Inactive)
REMARK    1  A    between atoms: C_2  and  C_14
REMARK    2  A    between atoms: C_2  and  O_32
REMARK    3  A    between atoms: C_4  and  C_24
REMARK    4  A    between atoms: O_5  and  C_20
REMARK    5  A    between atoms: O_8  and  C_12
REMARK    6  A    between atoms: C_15  and  O_17
REMARK    7  A    between atoms: C_16  and  O_32
REMARK    8  A    between atoms: O_17  and  C_29
REMARK    9  A    between atoms: O_19  and  C_28
REMARK                            x       y       z     vdW  Elec       q    Type
REMARK                         _______ _______ _______ _____ _____    ______ ____
USER                              x       y       z     vdW  Elec       q    Type
USER                           _______ _______ _______ _____ _____    ______ ____
ROOT
ATOM      1  C   UNL     1      20.159 -31.575 -33.957 -0.04 -0.00    +0.000 C  
ATOM      2  C   UNL     1      24.713 -30.525 -30.507 -0.16 -0.00    +0.000 A  
ATOM      3  C   UNL     1      25.084 -29.733 -31.557 +0.11 -0.00    +0.000 A  
ATOM      4  N   UNL     1      21.109 -30.991 -33.192 +0.42 -0.00    +0.000 N  
ATOM      5  C   UNL     1      21.313 -31.454 -31.900 -0.65 -0.00    +0.000 A  
ATOM      6  C   UNL     1      19.520 -32.724 -33.581 -0.70 -0.00    +0.000 C  
ATOM      7  C   UNL     1      22.596 -30.880 -31.514 -0.42 -0.00    +0.000 A  
ATOM      8  C   UNL     1      23.440 -31.007 -30.420 -0.22 -0.00    +0.000 A  
ATOM      9  C   UNL     1      23.003 -30.062 -32.581 +7.71 -0.00    +0.000 A  
ATOM     10  C   UNL     1      20.384 -32.293 -31.331 -0.70 -0.00    +0.000 C  
ATOM     11  C   UNL     1      19.502 -33.075 -32.160 -0.27 -0.00    +0.000 C  
ATOM     12  N   UNL     1      22.069 -30.101 -33.504+34.34 -0.00    +0.000 NA 
ATOM     13  C   UNL     1      24.305 -29.427 -32.622 +1.47 -0.00    +0.000 A  
ENDROOT
BRANCH   2  17
ATOM     14  C   UNL     1      27.414 -31.861 -27.447 +0.14 +0.00    +0.000 A  
ATOM     15  C   UNL     1      27.674 -30.747 -28.170+17.01 +0.00    +0.000 A  
ATOM     16  C   UNL     1      26.908 -30.327 -29.259 +7.88 -0.00    +0.000 A  
ATOM     17  C   UNL     1      25.718 -30.992 -29.487+27.62 -0.00    +0.000 A  
ATOM     18  C   UNL     1      25.498 -32.142 -28.861+19.99 -0.00    +0.000 A  
ATOM     19  C   UNL     1      26.303 -32.581 -27.845 +1.01 +0.00    +0.000 A  
BRANCH  16  20
ATOM     20  O   UNL     1      27.362 -29.335 -29.892 +1.04 +0.00    +0.000 OA 
ATOM     21  C   UNL     1      26.513 -28.173 -29.952 +6.17 -0.00    +0.000 C  
ENDBRANCH  16  20
BRANCH  19  22
ATOM     22  O   UNL     1      26.090 -33.741 -27.151 +2.64 +0.00    +0.000 OA 
BRANCH  22  23
ATOM     23  C   UNL     1      25.864 -34.677 -26.777+11.89 -0.00    +0.000 C  
ATOM     24  C   UNL     1      25.736 -35.612 -26.652+13.74 -0.00    +0.000 C  
ENDBRANCH  22  23
ENDBRANCH  19  22
ENDBRANCH   2  17
BRANCH   8  25
ATOM     25  O   UNL     1      22.954 -31.855 -29.407+42.38 +0.00    +0.000 OA 
ATOM     26  C   UNL     1      21.559 -31.937 -29.104+55.92 +0.00    +0.000 C  
ENDBRANCH   8  25
BRANCH  13  28
ATOM     27  C   UNL     1      25.084 -27.205 -33.586 +5.35 -0.00    +0.000 C  
ATOM     28  O   UNL     1      24.645 -28.612 -33.673 +4.46 -0.00    +0.000 OA 
ENDBRANCH  13  28
BRANCH   6  29
ATOM     29  O   UNL     1      18.692 -33.282 -34.479 -0.78 -0.00    +0.000 OA 
BRANCH  29  30
ATOM     30  C   UNL     1      18.030 -34.491 -34.492 -0.58 +0.00    +0.000 C  
BRANCH  30  32
ATOM     31  C   UNL     1      18.244 -36.703 -33.342 -0.13 +0.00    +0.000 C  
ATOM     32  C   UNL     1      17.998 -35.267 -33.347 -0.68 -0.00    +0.000 C  
ENDBRANCH  30  32
ENDBRANCH  29  30
ENDBRANCH   6  29
TORSDOF 9
TER