USER    Run = 1
USER
USER    Estimated Free Energy of Binding    =  -6.29 kcal/mol  [=(1)+(2)+(3)-(4)]
USER
USER    (1) Final Intermolecular Energy     =  -8.68 kcal/mol
USER        vdW + Hbond + desolv Energy     =  -8.68 kcal/mol
USER        Electrostatic Energy            =  +0.00 kcal/mol
USER        Moving Ligand-Fixed Receptor    =  -8.68 kcal/mol
USER        Moving Ligand-Moving Receptor   =  +0.00 kcal/mol
USER    (2) Final Total Internal Energy     =  -0.74 kcal/mol
USER    (3) Torsional Free Energy           =  +2.39 kcal/mol
USER    (4) Unbound System's Energy         =  -0.74 kcal/mol
USER
USER
REMARK  Name = 
REMARK  8 active torsions:
REMARK  status: ('A' for Active; 'I' for Inactive)
REMARK    1  A    between atoms: C_1  and  C_5
REMARK    2  A    between atoms: N_2  and  C_6
REMARK    3  A    between atoms: N_2  and  C_9
REMARK    4  A    between atoms: C_3  and  N_12
REMARK    5  A    between atoms: C_5  and  C_6
REMARK    6  A    between atoms: C_6  and  N_12
REMARK    7  A    between atoms: C_7  and  C_10
REMARK    8  A    between atoms: C_9  and  C_10
REMARK                            x       y       z     vdW  Elec       q    Type
REMARK                         _______ _______ _______ _____ _____    ______ ____
USER                              x       y       z     vdW  Elec       q    Type
USER                           _______ _______ _______ _____ _____    ______ ____
ROOT
ATOM      1  C   UNL     1      22.019 -31.740 -31.660 -0.73 -0.00    +0.000 C  
ENDROOT
BRANCH   1   2
ATOM      2  N   UNL     1      20.538 -31.764 -31.267 -0.77 -0.00    +0.000 NA 
BRANCH   2   3
ATOM      3  C   UNL     1      20.552 -32.833 -30.609 -0.68 -0.00    +0.000 C  
BRANCH   3   4
ATOM      4  C   UNL     1      19.496 -33.863 -31.167 -0.59 -0.00    +0.000 C  
BRANCH   4   6
ATOM      5  O   UNL     1      21.484 -34.918 -31.163 -0.79 -0.00    +0.000 OA 
ATOM      6  C   UNL     1      20.262 -34.918 -31.876 -0.69 -0.00    +0.000 C  
ENDBRANCH   4   6
ENDBRANCH   3   4
ENDBRANCH   2   3
ENDBRANCH   1   2
BRANCH   1   7
ATOM      7  C   UNL     1      21.722 -31.886 -33.003 -0.75 -0.00    +0.000 C  
BRANCH   7   8
ATOM      8  C   UNL     1      20.198 -31.699 -33.505 -0.62 -0.00    +0.000 C  
ATOM      9  C   UNL     1      20.210 -32.869 -34.432 -0.74 -0.00    +0.000 C  
ENDBRANCH   7   8
ENDBRANCH   1   7
BRANCH   1  10
ATOM     10  N   UNL     1      23.348 -30.871 -31.761 -0.73 -0.00    +0.000 NA 
BRANCH  10  11
ATOM     11  C   UNL     1      24.292 -29.945 -31.496 -0.77 -0.00    +0.000 C  
ATOM     12  C   UNL     1      24.699 -29.398 -31.154 -0.82 -0.00    +0.000 C  
ENDBRANCH  10  11
ENDBRANCH   1  10
TORSDOF 8
TER