USER    Run = 1
USER
USER    Estimated Free Energy of Binding    =  -7.85 kcal/mol  [=(1)+(2)+(3)-(4)]
USER
USER    (1) Final Intermolecular Energy     =  -7.85 kcal/mol
USER        vdW + Hbond + desolv Energy     =  -7.85 kcal/mol
USER        Electrostatic Energy            =  +0.00 kcal/mol
USER        Moving Ligand-Fixed Receptor    =  -7.85 kcal/mol
USER        Moving Ligand-Moving Receptor   =  +0.00 kcal/mol
USER    (2) Final Total Internal Energy     =  +0.00 kcal/mol
USER    (3) Torsional Free Energy           =  +0.00 kcal/mol
USER    (4) Unbound System's Energy         =  +0.00 kcal/mol
USER
USER
REMARK  Name = 
REMARK  0 active torsions:
REMARK  status: ('A' for Active; 'I' for Inactive)
REMARK                            x       y       z     vdW  Elec       q    Type
REMARK                         _______ _______ _______ _____ _____    ______ ____
USER                              x       y       z     vdW  Elec       q    Type
USER                           _______ _______ _______ _____ _____    ______ ____
ROOT
ATOM      1  N   UNL     1      22.189 -31.778 -31.574 -0.92 -0.00    +0.000 NA 
ATOM      2  C   UNL     1      20.838 -32.443 -32.802 -0.77 -0.00    +0.000 C  
ATOM      3  C   UNL     1      20.713 -33.129 -31.982 -0.73 -0.00    +0.000 C  
ATOM      4  C   UNL     1      18.983 -33.775 -34.097 -0.67 -0.00    +0.000 C  
ATOM      5  C   UNL     1      21.721 -31.600 -32.686 -0.75 -0.00    +0.000 C  
ATOM      6  C   UNL     1      18.952 -34.531 -32.899 -0.63 -0.00    +0.000 C  
ATOM      7  N   UNL     1      21.563 -32.638 -31.154 -1.18 -0.00    +0.000 NA 
ATOM      8  C   UNL     1      19.832 -32.721 -34.019 -0.76 -0.00    +0.000 C  
ATOM      9  C   UNL     1      19.683 -34.193 -31.815 -0.71 -0.00    +0.000 C  
ATOM     10  C   UNL     1      17.952 -35.829 -32.769 -0.74 -0.00    +0.000 C  
ENDROOT
TORSDOF 0
TER