USER    Run = 1
USER
USER    Estimated Free Energy of Binding    =+142.67 kcal/mol  [=(1)+(2)+(3)-(4)]
USER
USER    (1) Final Intermolecular Energy     =+142.67 kcal/mol
USER        vdW + Hbond + desolv Energy     =+142.67 kcal/mol
USER        Electrostatic Energy            =  +0.00 kcal/mol
USER        Moving Ligand-Fixed Receptor    =+142.67 kcal/mol
USER        Moving Ligand-Moving Receptor   =  +0.00 kcal/mol
USER    (2) Final Total Internal Energy     =  +0.00 kcal/mol
USER    (3) Torsional Free Energy           =  +0.00 kcal/mol
USER    (4) Unbound System's Energy         =  +0.00 kcal/mol
USER
USER
REMARK  Name = 
REMARK  0 active torsions:
REMARK  status: ('A' for Active; 'I' for Inactive)
REMARK                            x       y       z     vdW  Elec       q    Type
REMARK                         _______ _______ _______ _____ _____    ______ ____
USER                              x       y       z     vdW  Elec       q    Type
USER                           _______ _______ _______ _____ _____    ______ ____
ROOT
ATOM      1  O   UNL     1      22.964 -30.724 -34.126+12.36 -0.00    +0.000 OA 
ATOM      2  N   UNL     1      24.280 -29.910 -28.576+10.25 +0.00    +0.000 NA 
ATOM      3  F   UNL     1      19.346 -35.908 -32.923 +0.14 -0.00    +0.000 F  
ATOM      4  C   UNL     1      21.058 -32.823 -33.656 -0.69 -0.00    +0.000 C  
ATOM      5  C   UNL     1      22.013 -32.159 -32.651 -0.46 -0.00    +0.000 C  
ATOM      6  C   UNL     1      20.337 -34.007 -33.772 +0.16 -0.00    +0.000 C  
ATOM      7  C   UNL     1      22.713 -31.253 -29.632+13.33 -0.00    +0.000 C  
ATOM      8  C   UNL     1      20.406 -33.592 -31.610 -0.74 -0.00    +0.000 C  
ATOM      9  C   UNL     1      20.614 -32.269 -27.775+18.85 -0.00    +0.000 C  
ATOM     10  C   UNL     1      23.880 -30.340 -32.125 -0.63 -0.00    +0.000 C  
ATOM     11  C   UNL     1      19.592 -34.527 -32.719 -0.57 -0.00    +0.000 C  
ATOM     12  C   UNL     1      20.923 -32.757 -29.051 +5.61 -0.00    +0.000 C  
ATOM     13  C   UNL     1      23.223 -30.730 -28.431+12.35 +0.00    +0.000 C  
ATOM     14  C   UNL     1      24.536 -29.886 -29.939 -0.53 -0.00    +0.000 C  
ATOM     15  C   UNL     1      22.673 -30.883 -27.116+11.86 +0.00    +0.000 C  
ATOM     16  C   UNL     1      22.928 -31.087 -33.065 -0.18 -0.00    +0.000 C  
ATOM     17  C   UNL     1      23.623 -30.648 -30.752 -0.61 -0.00    +0.000 C  
ATOM     18  C   UNL     1      23.511 -30.330 -25.906+14.49 -0.00    +0.000 C  
ATOM     19  C   UNL     1      24.909 -29.646 -32.716 +8.35 -0.00    +0.000 C  
ATOM     20  O   UNL     1      25.454 -29.028 -30.405 -0.86 -0.00    +0.000 OA 
ATOM     21  F   UNL     1      18.315 -34.345 -32.189 -0.35 -0.00    +0.000 F  
ATOM     22  C   UNL     1      20.927 -34.484 -31.239 -0.62 -0.00    +0.000 C  
ATOM     23  C   UNL     1      21.285 -31.535 -26.973+25.06 -0.00    +0.000 C  
ATOM     24  C   UNL     1      21.803 -32.244 -29.978+15.59 +0.00    +0.000 C  
ATOM     25  C   UNL     1      21.682 -32.802 -31.385 +0.49 -0.00    +0.000 C  
ENDROOT
TORSDOF 0
TER