USER    Run = 1
USER
USER    Estimated Free Energy of Binding    =  -7.14 kcal/mol  [=(1)+(2)+(3)-(4)]
USER
USER    (1) Final Intermolecular Energy     =  -7.44 kcal/mol
USER        vdW + Hbond + desolv Energy     =  -7.44 kcal/mol
USER        Electrostatic Energy            =  +0.00 kcal/mol
USER        Moving Ligand-Fixed Receptor    =  -7.44 kcal/mol
USER        Moving Ligand-Moving Receptor   =  +0.00 kcal/mol
USER    (2) Final Total Internal Energy     =  -0.21 kcal/mol
USER    (3) Torsional Free Energy           =  +0.30 kcal/mol
USER    (4) Unbound System's Energy         =  -0.21 kcal/mol
USER
USER
REMARK  Name = 
REMARK  1 active torsions:
REMARK  status: ('A' for Active; 'I' for Inactive)
REMARK    1  A    between atoms: C_8  and  N_9
REMARK                            x       y       z     vdW  Elec       q    Type
REMARK                         _______ _______ _______ _____ _____    ______ ____
USER                              x       y       z     vdW  Elec       q    Type
USER                           _______ _______ _______ _____ _____    ______ ____
ROOT
ATOM      1  C   UNL     1      20.649 -33.060 -31.450 -0.65 -0.00    +0.000 A  
ATOM      2  C   UNL     1      19.719 -33.659 -32.299 -0.58 -0.00    +0.000 A  
ATOM      3  O   UNL     1      20.576 -33.489 -30.210 -0.83 -0.00    +0.000 OA 
ATOM      4  C   UNL     1      21.534 -31.758 -33.304 -0.57 -0.00    +0.000 A  
ATOM      5  C   UNL     1      19.678 -33.332 -33.648 -0.62 -0.00    +0.000 A  
ATOM      6  C   UNL     1      20.564 -32.320 -34.149 -0.66 -0.00    +0.000 A  
ATOM      7  C   UNL     1      21.558 -32.105 -31.947 -0.66 -0.00    +0.000 A  
ENDROOT
BRANCH   7   9
ATOM      8  O   UNL     1      24.326 -30.389 -31.953 -1.34 -0.00    +0.000 OA 
ATOM      9  N   UNL     1      22.418 -31.502 -31.050 -0.79 -0.00    +0.000 NA 
ATOM     10  C   UNL     1      23.382 -30.855 -31.538 -0.74 -0.00    +0.000 C  
ENDBRANCH   7   9
TORSDOF 1
TER