USER    Run = 1
USER
USER    Estimated Free Energy of Binding    =  +5.75e+03 kcal/mol  [=(1)+(2)+(3)-(4)]
USER
USER    (1) Final Intermolecular Energy     =  +5.75e+03 kcal/mol
USER        vdW + Hbond + desolv Energy     =  +5.75e+03 kcal/mol
USER        Electrostatic Energy            =  +0.00 kcal/mol
USER        Moving Ligand-Fixed Receptor    =  +5.75e+03 kcal/mol
USER        Moving Ligand-Moving Receptor   =  +0.00 kcal/mol
USER    (2) Final Total Internal Energy     =+713.65 kcal/mol
USER    (3) Torsional Free Energy           =  +2.39 kcal/mol
USER    (4) Unbound System's Energy         =+713.65 kcal/mol
USER
USER
REMARK  Name = 
REMARK  8 active torsions:
REMARK  status: ('A' for Active; 'I' for Inactive)
REMARK    1  A    between atoms: C_2  and  C_34
REMARK    2  A    between atoms: C_3  and  C_10
REMARK    3  A    between atoms: C_4  and  C_7
REMARK    4  A    between atoms: C_5  and  C_36
REMARK    5  A    between atoms: C_10  and  C_42
REMARK    6  A    between atoms: C_17  and  C_26
REMARK    7  A    between atoms: C_17  and  C_31
REMARK    8  A    between atoms: C_23  and  C_28
REMARK                            x       y       z     vdW  Elec       q    Type
REMARK                         _______ _______ _______ _____ _____    ______ ____
USER                              x       y       z     vdW  Elec       q    Type
USER                           _______ _______ _______ _____ _____    ______ ____
ROOT
ATOM      1  C   UNL     1      22.437 -31.843 -32.712 -0.41 -0.00    +0.000 C  
ATOM      2  C   UNL     1      22.079 -29.379 -34.136+99.99 +0.00    +0.000 C  
ATOM      3  N   UNL     1      23.522 -32.303 -31.928 +4.49 -0.00    +0.000 NA 
ATOM      4  C   UNL     1      24.341 -31.121 -31.486 -0.21 -0.00    +0.000 C  
ATOM      5  C   UNL     1      23.048 -30.545 -33.321 +2.71 -0.00    +0.000 C  
ATOM      6  N   UNL     1      24.258 -30.270 -32.368 -1.08 -0.00    +0.000 NA 
ENDROOT
BRANCH   4   7
ATOM      7  C   UNL     1      25.158 -31.286 -30.375+48.58 -0.00    +0.000 C  
ATOM      8  C   UNL     1      26.292 -31.059 -29.866+99.99 -0.00    +0.000 C  
ATOM      9  O   UNL     1      28.373 -30.160 -28.937 +3.28 +0.00    +0.000 OA 
ATOM     10  C   UNL     1      27.456 -31.420 -28.754+17.29 +0.00    +0.000 C  
ATOM     11  N   UNL     1      26.496 -31.722 -27.781 -0.22 +0.00    +0.000 NA 
ATOM     12  C   UNL     1      24.920 -32.002 -28.024+31.20 +0.00    +0.000 C  
ATOM     13  C   UNL     1      24.142 -32.061 -29.040+99.99 -0.00    +0.000 C  
ATOM     14  O   UNL     1      28.475 -32.344 -28.514 +4.94 +0.00    +0.000 OA 
BRANCH  13  15
ATOM     15  C   UNL     1      23.059 -32.049 -29.489+99.99 +0.00    +0.000 C  
ATOM     16  C   UNL     1      21.956 -30.818 -29.960+99.99 -0.00    +0.000 C  
BRANCH  16  17
ATOM     17  C   UNL     1      20.735 -30.884 -30.265+99.99 -0.00    +0.000 C  
BRANCH  17  23
ATOM     18  C   UNL     1      19.953 -28.865 -31.573+99.99 -0.00    +0.000 C  
ATOM     19  O   UNL     1      18.286 -25.674 -31.861+73.81 +0.00    +0.000 OA 
ATOM     20  C   UNL     1      19.182 -28.430 -32.666+28.25 -0.00    +0.000 C  
ATOM     21  C   UNL     1      19.436 -26.141 -31.845+21.50 -0.00    +0.000 C  
ATOM     22  C   UNL     1      20.406 -28.169 -30.344+90.61 -0.00    +0.000 C  
ATOM     23  C   UNL     1      19.920 -29.556 -30.431+99.99 -0.00    +0.000 C  
ATOM     24  C   UNL     1      20.289 -27.297 -32.563+99.99 -0.00    +0.000 C  
ATOM     25  C   UNL     1      20.028 -26.764 -30.347+99.99 -0.00    +0.000 C  
ENDBRANCH  17  23
ENDBRANCH  16  17
ENDBRANCH  13  15
ENDBRANCH   4   7
BRANCH   1  26
ATOM     26  C   UNL     1      20.985 -32.584 -33.110 -0.76 -0.00    +0.000 C  
BRANCH  26  32
ATOM     27  C   UNL     1      21.341 -33.096 -29.709+41.58 +0.00    +0.000 C  
ATOM     28  O   UNL     1      20.782 -32.558 -30.856 -1.08 -0.00    +0.000 OA 
ATOM     29  C   UNL     1      21.789 -34.509 -29.915+99.99 -0.00    +0.000 C  
ATOM     30  O   UNL     1      22.444 -35.089 -29.415+99.99 -0.00    +0.000 OA 
ATOM     31  C   UNL     1      21.568 -34.429 -31.549 +0.29 -0.00    +0.000 C  
ATOM     32  C   UNL     1      20.577 -33.462 -32.025 -0.72 -0.00    +0.000 C  
BRANCH  27  39
ATOM     33  C   UNL     1      22.030 -30.133 -26.003 +3.61 +0.00    +0.000 C  
ATOM     34  C   UNL     1      22.457 -31.096 -28.424+99.99 +0.00    +0.000 C  
ATOM     35  C   UNL     1      22.404 -30.349 -27.262+41.23 +0.00    +0.000 C  
ATOM     36  C   UNL     1      20.891 -32.253 -26.047+99.99 -0.00    +0.000 C  
ATOM     37  C   UNL     1      21.424 -31.072 -25.362+99.99 -0.00    +0.000 C  
ATOM     38  C   UNL     1      21.097 -32.580 -27.224+61.07 -0.00    +0.000 C  
ATOM     39  C   UNL     1      21.436 -32.119 -28.583+96.81 +0.00    +0.000 C  
BRANCH  33  40
ATOM     40  C   UNL     1      22.314 -28.801 -25.331 +0.78 +0.00    +0.000 C  
ATOM     41  C   UNL     1      23.542 -28.909 -24.368 -0.40 +0.00    +0.000 C  
ATOM     42  C   UNL     1      22.392 -27.397 -25.994 +3.27 +0.00    +0.000 C  
ENDBRANCH  33  40
ENDBRANCH  27  39
ENDBRANCH  26  32
ENDBRANCH   1  26
TORSDOF 8
TER